LTspice 24.1.1 for Windows
Circuit: D:\POWER BI PROJECT\POWER-BI---DASHBOARDS-main\Food Nutrients Analysis\placeholder.txt
Start Time: Fri Jun 13 21:04:12 2025
No analysis specified.